*version 9.2 2657785905
u 329
C? 4
U? 15
V? 8
? 4
@libraries
@analysis
.TRAN 1 0 0 0
+0 0.1n
+1 0.25s
+2 0
+3 0.1m
@targets
@attributes
@translators
a 0 u 13 0 0 0 hln 100 PCBOARDS=PCB
a 0 u 13 0 0 0 hln 100 PSPICE=PSPICE
a 0 u 13 0 0 0 hln 100 XILINX=XILINX
@setup
unconnectedPins 0
connectViaLabel 0
connectViaLocalLabels 0
NoStim4ExtIFPortsWarnings 1
AutoGenStim4ExtIFPorts 1
@index
pageloc 1 0 19709 
@status
n 0 122:01:21:01:51:44;1645386704 e 
s 2832 122:01:21:01:51:44;1645386704 e 
*page 1 0 1520 970 iB
@ports
port 233 BUBBLE 40 50 h
a 1 x 3 0 0 0 hcn 100 LABEL=pos
port 234 BUBBLE 40 170 u
a 1 x 3 0 0 0 hcn 100 LABEL=neg
port 235 BUBBLE 300 110 h
a 1 x 3 0 0 0 hcn 100 LABEL=neg
port 236 BUBBLE 300 170 u
a 1 x 3 0 0 0 hcn 100 LABEL=pos
port 237 BUBBLE 40 110 v
a 1 x 3 0 0 0 hcn 100 LABEL=gnd
port 239 GND_EARTH 40 240 h
port 240 BUBBLE 40 240 h
a 1 x 3 0 0 0 hcn 100 LABEL=gnd
port 241 BUBBLE 160 230 u
a 1 x 3 0 0 0 hcn 100 LABEL=gnd
port 242 BUBBLE 520 180 v
a 1 x 3 0 0 0 hcn 100 LABEL=gnd
port 243 BUBBLE 470 240 u
a 1 x 3 0 0 0 hcn 100 LABEL=gnd
port 244 BUBBLE 560 130 h
a 1 x 3 0 0 0 hcn 100 LABEL=neg
port 245 BUBBLE 560 190 u
a 1 x 3 0 0 0 hcn 100 LABEL=pos
port 246 BUBBLE 810 150 h
a 1 x 3 0 0 0 hcn 100 LABEL=neg
port 247 BUBBLE 810 210 u
a 1 x 3 0 0 0 hcn 100 LABEL=pos
port 248 BUBBLE 770 200 v
a 1 x 3 0 0 0 hcn 100 LABEL=gnd
port 249 BUBBLE 1030 130 h
a 1 x 3 0 0 0 hcn 100 LABEL=gnd
port 250 BUBBLE 1030 270 u
a 1 x 3 0 0 0 hcn 100 LABEL=gnd
port 251 BUBBLE 990 220 v
a 1 x 3 0 0 0 hcn 100 LABEL=gnd
port 252 BUBBLE 1220 190 h
a 1 x 3 0 0 0 hcn 100 LABEL=neg
port 253 BUBBLE 1220 250 u
a 1 x 3 0 0 0 hcn 100 LABEL=pos
port 254 BUBBLE 1180 240 v
a 1 x 3 0 0 0 hcn 100 LABEL=gnd
port 255 BUBBLE 230 450 h
a 1 x 3 0 0 0 hcn 100 LABEL=neg
port 256 BUBBLE 230 510 u
a 1 x 3 0 0 0 hcn 100 LABEL=pos
port 257 BUBBLE 190 500 v
a 1 x 3 0 0 0 hcn 100 LABEL=gnd
port 258 BUBBLE 470 520 v
a 1 x 3 0 0 0 hcn 100 LABEL=gnd
port 259 BUBBLE 510 470 h
a 1 x 3 0 0 0 hcn 100 LABEL=neg
port 260 BUBBLE 510 530 u
a 1 x 3 0 0 0 hcn 100 LABEL=pos
port 261 BUBBLE 420 580 u
a 1 x 3 0 0 0 hcn 100 LABEL=gnd
port 262 BUBBLE 740 490 h
a 1 x 3 0 0 0 hcn 100 LABEL=pos
port 265 BUBBLE 280 710 h
a 1 x 3 0 0 0 hcn 100 LABEL=neg
port 266 BUBBLE 280 770 u
a 1 x 3 0 0 0 hcn 100 LABEL=pos
port 267 BUBBLE 240 760 v
a 1 x 3 0 0 0 hcn 100 LABEL=gnd
port 268 BUBBLE 140 760 u
a 1 x 3 0 0 0 hcn 100 LABEL=gnd
port 269 BUBBLE 540 730 h
a 1 x 3 0 0 0 hcn 100 LABEL=neg
port 270 BUBBLE 540 790 u
a 1 x 3 0 0 0 hcn 100 LABEL=pos
port 271 BUBBLE 500 780 v
a 1 x 3 0 0 0 hcn 100 LABEL=gnd
port 264 BUBBLE 1160 520 u
a 1 x 3 0 0 0 hcn 100 LABEL=gnd
port 263 BUBBLE 740 550 u
a 1 x 3 0 0 0 hcn 100 LABEL=gnd
@parts
part 193 R 100 220 v
a 0 sp 0 0 0 10 hlb 100 PART=R
a 0 s 0:13 0 0 0 hln 100 PKGTYPE=RC05
a 0 s 0:13 0 0 0 hln 100 GATE=
a 0 x 0:13 0 0 0 hln 100 PKGREF=R4
a 0 xp 9 0 15 0 hln 100 REFDES=R4
a 0 u 13 0 15 37 hln 100 VALUE=100k
part 194 R 100 140 v
a 0 sp 0 0 0 10 hlb 100 PART=R
a 0 s 0:13 0 0 0 hln 100 PKGTYPE=RC05
a 0 s 0:13 0 0 0 hln 100 GATE=
a 0 x 0:13 0 0 0 hln 100 PKGREF=R3
a 0 xp 9 0 15 0 hln 100 REFDES=R3
a 0 u 13 0 15 39 hln 100 VALUE=100k
part 195 R 210 100 v
a 0 sp 0 0 0 10 hlb 100 PART=R
a 0 s 0:13 0 0 0 hln 100 PKGTYPE=RC05
a 0 s 0:13 0 0 0 hln 100 GATE=
a 0 x 0:13 0 0 0 hln 100 PKGREF=R2
a 0 xp 9 0 15 0 hln 100 REFDES=R2
a 0 u 13 0 15 33 hln 100 VALUE=40k
part 196 c 100 80 v
a 0 sp 0 0 0 10 hlb 100 PART=c
a 0 s 0:13 0 0 0 hln 100 PKGTYPE=CK05
a 0 s 0:13 0 0 0 hln 100 GATE=
a 0 ap 9 0 15 0 hln 100 REFDES=C1
a 0 u 13 0 15 31 hln 100 VALUE=0.1u
a 0 u 0 0 0 0 hln 100 IC=0
a 0 a 0:13 0 0 0 hln 100 PKGREF=C1
part 197 uA741 260 160 U
a 0 sp 11 0 0 70 hcn 100 PART=uA741
a 0 s 0:13 0 0 0 hln 100 PKGTYPE=DIP8
a 0 s 0:13 0 0 0 hln 100 GATE=
a 0 ap 9 0 14 0 hln 100 REFDES=U1
a 0 a 0:13 0 0 0 hln 100 PKGREF=U1
part 198 VDC 40 50 h
a 0 sp 0 0 22 37 hln 100 PART=VDC
a 1 ap 9 0 24 7 hcn 100 REFDES=V1
a 1 u 13 0 -11 18 hcn 100 DC=15V
a 0 a 0:13 0 0 0 hln 100 PKGREF=V1
part 199 c 160 210 v
a 0 sp 0 0 0 10 hlb 100 PART=c
a 0 s 0:13 0 0 0 hln 100 PKGTYPE=CK05
a 0 s 0:13 0 0 0 hln 100 GATE=
a 0 ap 9 0 15 0 hln 100 REFDES=C2
a 0 u 13 0 15 37 hln 100 VALUE=0.1u
a 0 u 0 0 0 0 hln 100 IC=0
a 0 a 0:13 0 0 0 hln 100 PKGREF=C2
part 200 R 210 220 v
a 0 sp 0 0 0 10 hlb 100 PART=R
a 0 s 0:13 0 0 0 hln 100 PKGTYPE=RC05
a 0 s 0:13 0 0 0 hln 100 GATE=
a 0 x 0:13 0 0 0 hln 100 PKGREF=R1
a 0 xp 9 0 15 0 hln 100 REFDES=R1
a 0 u 13 0 15 33 hln 100 VALUE=20k
part 201 uA741 520 180 U
a 0 sp 11 0 0 70 hcn 100 PART=uA741
a 0 s 0:13 0 0 0 hln 100 PKGTYPE=DIP8
a 0 s 0:13 0 0 0 hln 100 GATE=
a 0 ap 9 0 14 0 hln 100 REFDES=U2
a 0 a 0:13 0 0 0 hln 100 PKGREF=U2
part 202 R 410 140 h
a 0 sp 0 0 0 10 hlb 100 PART=R
a 0 s 0:13 0 0 0 hln 100 PKGTYPE=RC05
a 0 s 0:13 0 0 0 hln 100 GATE=
a 0 x 0:13 0 0 0 hln 100 PKGREF=R5
a 0 xp 9 0 15 0 hln 100 REFDES=R5
part 203 R 470 200 v
a 0 sp 0 0 0 10 hlb 100 PART=R
a 0 s 0:13 0 0 0 hln 100 PKGTYPE=RC05
a 0 s 0:13 0 0 0 hln 100 GATE=
a 0 x 0:13 0 0 0 hln 100 PKGREF=R6
a 0 xp 9 0 15 0 hln 100 REFDES=R6
part 204 R 570 70 u
a 0 sp 0 0 0 10 hlb 100 PART=R
a 0 s 0:13 0 0 0 hln 100 PKGTYPE=RC05
a 0 s 0:13 0 0 0 hln 100 GATE=
a 0 x 0:13 0 0 0 hln 100 PKGREF=R7
a 0 xp 9 0 15 0 hln 100 REFDES=R7
part 205 VDC 40 130 h
a 0 sp 0 0 22 37 hln 100 PART=VDC
a 1 u 13 0 -11 18 hcn 100 DC=15V
a 1 ap 9 0 24 7 hcn 100 REFDES=V2
a 0 a 0:13 0 0 0 hln 100 PKGREF=V2
part 206 R 700 160 h
a 0 sp 0 0 0 10 hlb 100 PART=R
a 0 s 0:13 0 0 0 hln 100 PKGTYPE=RC05
a 0 s 0:13 0 0 0 hln 100 GATE=
a 0 x 0:13 0 0 0 hln 100 PKGREF=R8
a 0 xp 9 0 15 0 hln 100 REFDES=R8
part 207 uA741 770 200 U
a 0 sp 11 0 0 70 hcn 100 PART=uA741
a 0 s 0:13 0 0 0 hln 100 PKGTYPE=DIP8
a 0 s 0:13 0 0 0 hln 100 GATE=
a 0 ap 9 0 14 0 hln 100 REFDES=U3
a 0 a 0:13 0 0 0 hln 100 PKGREF=U3
part 208 R 790 90 h
a 0 sp 0 0 0 10 hlb 100 PART=R
a 0 s 0:13 0 0 0 hln 100 PKGTYPE=RC05
a 0 s 0:13 0 0 0 hln 100 GATE=
a 0 x 0:13 0 0 0 hln 100 PKGREF=R9
a 0 xp 9 0 15 0 hln 100 REFDES=R9
a 0 u 13 0 15 25 hln 100 VALUE=35.98k
part 209 VDC 470 200 h
a 1 u 13 0 -11 18 hcn 100 DC=20.8m
a 0 sp 0 0 22 37 hln 100 PART=VDC
a 1 ap 9 0 24 7 hcn 100 REFDES=V3
a 0 a 0:13 0 0 0 hln 100 PKGREF=V3
part 210 VDC 1030 170 u
a 1 u 13 0 -11 18 hcn 100 DC=1.184V
a 0 sp 0 0 22 37 hln 100 PART=VDC
a 0 a 0:13 0 0 0 hln 100 PKGREF=V4
a 1 ap 9 0 24 7 hcn 100 REFDES=V4
part 211 VDC 1030 270 u
a 1 u 13 0 -11 18 hcn 100 DC=1.184V
a 0 sp 0 0 22 37 hln 100 PART=VDC
a 0 a 0:13 0 0 0 hln 100 PKGREF=V5
a 1 ap 9 0 24 7 hcn 100 REFDES=V5
part 212 uA741 990 180 h
a 0 sp 11 0 0 70 hcn 100 PART=uA741
a 0 s 0:13 0 0 0 hln 100 PKGTYPE=DIP8
a 0 s 0:13 0 0 0 hln 100 GATE=
a 0 a 0:13 0 0 0 hln 100 PKGREF=U4
a 0 ap 9 0 14 0 hln 100 REFDES=U4
part 213 uA741 1180 240 U
a 0 sp 11 0 0 70 hcn 100 PART=uA741
a 0 s 0:13 0 0 0 hln 100 PKGTYPE=DIP8
a 0 s 0:13 0 0 0 hln 100 GATE=
a 0 a 0:13 0 0 0 hln 100 PKGREF=U5
a 0 ap 9 0 14 0 hln 100 REFDES=U5
part 214 R 1100 200 h
a 0 u 13 0 15 25 hln 100 VALUE=100
a 0 sp 0 0 0 10 hlb 100 PART=R
a 0 s 0:13 0 0 0 hln 100 PKGTYPE=RC05
a 0 s 0:13 0 0 0 hln 100 GATE=
a 0 x 0:13 0 0 0 hln 100 PKGREF=R10
a 0 xp 9 0 15 0 hln 100 REFDES=R10
part 215 c 1210 130 h
a 0 u 13 0 15 25 hln 100 VALUE=10u
a 0 sp 0 0 0 10 hlb 100 PART=c
a 0 s 0:13 0 0 0 hln 100 PKGTYPE=CK05
a 0 s 0:13 0 0 0 hln 100 GATE=
a 0 ap 9 0 15 0 hln 100 REFDES=C3
a 0 a 0:13 0 0 0 hln 100 PKGREF=C3
part 216 uA741 190 500 U
a 0 sp 11 0 0 70 hcn 100 PART=uA741
a 0 s 0:13 0 0 0 hln 100 PKGTYPE=DIP8
a 0 s 0:13 0 0 0 hln 100 GATE=
a 0 a 0:13 0 0 0 hln 100 PKGREF=U6
a 0 ap 9 0 14 0 hln 100 REFDES=U6
part 217 R 210 390 h
a 0 x 0:13 0 0 0 hln 100 PKGREF=R12
a 0 xp 9 0 15 0 hln 100 REFDES=R12
a 0 sp 0 0 0 10 hlb 100 PART=R
a 0 s 0:13 0 0 0 hln 100 PKGTYPE=RC05
a 0 s 0:13 0 0 0 hln 100 GATE=
a 0 u 13 0 15 25 hln 100 VALUE=1k
part 218 R 120 460 h
a 0 u 13 0 15 25 hln 100 VALUE=15k
a 0 sp 0 0 0 10 hlb 100 PART=R
a 0 s 0:13 0 0 0 hln 100 PKGTYPE=RC05
a 0 s 0:13 0 0 0 hln 100 GATE=
a 0 x 0:13 0 0 0 hln 100 PKGREF=R11
a 0 xp 9 0 15 0 hln 100 REFDES=R11
part 219 uA741 470 520 U
a 0 sp 11 0 0 70 hcn 100 PART=uA741
a 0 s 0:13 0 0 0 hln 100 PKGTYPE=DIP8
a 0 s 0:13 0 0 0 hln 100 GATE=
a 0 a 0:13 0 0 0 hln 100 PKGREF=U7
a 0 ap 9 0 14 0 hln 100 REFDES=U7
part 220 R 520 410 u
a 0 x 0:13 0 0 0 hln 100 PKGREF=R15
a 0 xp 9 0 15 0 hln 100 REFDES=R15
a 0 sp 0 0 0 10 hlb 100 PART=R
a 0 s 0:13 0 0 0 hln 100 PKGTYPE=RC05
a 0 s 0:13 0 0 0 hln 100 GATE=
part 221 R 340 480 h
a 0 sp 0 0 0 10 hlb 100 PART=R
a 0 s 0:13 0 0 0 hln 100 PKGTYPE=RC05
a 0 s 0:13 0 0 0 hln 100 GATE=
a 0 x 0:13 0 0 0 hln 100 PKGREF=R13
a 0 xp 9 0 15 0 hln 100 REFDES=R13
part 222 R 420 540 v
a 0 sp 0 0 0 10 hlb 100 PART=R
a 0 s 0:13 0 0 0 hln 100 PKGTYPE=RC05
a 0 s 0:13 0 0 0 hln 100 GATE=
a 0 x 0:13 0 0 0 hln 100 PKGREF=R14
a 0 xp 9 0 15 0 hln 100 REFDES=R14
part 223 VDC 420 580 u
a 1 u 13 0 -11 18 hcn 100 DC=1
a 0 sp 0 0 22 37 hln 100 PART=VDC
a 0 a 0:13 0 0 0 hln 100 PKGREF=V6
a 1 ap 9 0 24 7 hcn 100 REFDES=V6
part 225 VDC 140 720 h
a 0 sp 0 0 22 37 hln 100 PART=VDC
a 1 u 13 0 -11 18 hcn 100 DC=0.1V
a 0 a 0:13 0 0 0 hln 100 PKGREF=V7
a 1 ap 9 0 24 7 hcn 100 REFDES=V7
part 226 uA741 500 780 U
a 0 sp 11 0 0 70 hcn 100 PART=uA741
a 0 s 0:13 0 0 0 hln 100 PKGTYPE=DIP8
a 0 s 0:13 0 0 0 hln 100 GATE=
a 0 a 0:13 0 0 0 hln 100 PKGREF=U8
a 0 ap 9 0 14 0 hln 100 REFDES=U8
part 228 R 430 740 h
a 0 x 0:13 0 0 0 hln 100 PKGREF=R19
a 0 xp 9 0 15 0 hln 100 REFDES=R19
a 0 sp 0 0 0 10 hlb 100 PART=R
a 0 s 0:13 0 0 0 hln 100 PKGTYPE=RC05
a 0 s 0:13 0 0 0 hln 100 GATE=
part 229 R 520 670 h
a 0 x 0:13 0 0 0 hln 100 PKGREF=R20
a 0 xp 9 0 15 0 hln 100 REFDES=R20
a 0 sp 0 0 0 10 hlb 100 PART=R
a 0 s 0:13 0 0 0 hln 100 PKGTYPE=RC05
a 0 s 0:13 0 0 0 hln 100 GATE=
a 0 u 13 0 15 25 hln 100 VALUE=1k
part 230 R 170 720 h
a 0 sp 0 0 0 10 hlb 100 PART=R
a 0 s 0:13 0 0 0 hln 100 PKGTYPE=RC05
a 0 s 0:13 0 0 0 hln 100 GATE=
a 0 x 0:13 0 0 0 hln 100 PKGREF=R17
a 0 xp 9 0 15 0 hln 100 REFDES=R17
part 231 uA741 240 760 U
a 0 sp 11 0 0 70 hcn 100 PART=uA741
a 0 s 0:13 0 0 0 hln 100 PKGTYPE=DIP8
a 0 s 0:13 0 0 0 hln 100 GATE=
a 0 ap 9 0 14 0 hln 100 REFDES=U10
a 0 a 0:13 0 0 0 hln 100 PKGREF=U10
part 227 uA741 700 500 h
a 0 sp 11 0 0 70 hcn 100 PART=uA741
a 0 s 0:13 0 0 0 hln 100 PKGTYPE=DIP8
a 0 s 0:13 0 0 0 hln 100 GATE=
a 0 ap 9 0 14 0 hln 100 REFDES=U9
a 0 a 0:13 0 0 0 hln 100 PKGREF=U9
part 279 Sw_tClose 880 460 h
a 0 sp 0 0 0 24 hln 100 PART=Sw_tClose
a 0 s 0:13 0 0 0 hln 100 PKGTYPE=
a 0 a 0:13 0 0 0 hln 100 PKGREF=U11
a 0 ap 9 0 0 20 hln 100 REFDES=U11
a 0 u 13 13 -2 -4 hln 100 tClose=0
part 280 Sw_tClose 1050 600 h
a 0 sp 0 0 0 24 hln 100 PART=Sw_tClose
a 0 s 0:13 0 0 0 hln 100 PKGTYPE=
a 0 a 0:13 0 0 0 hln 100 PKGREF=U12
a 0 ap 9 0 0 20 hln 100 REFDES=U12
a 0 u 13 13 -2 -4 hln 100 tClose=0
part 282 Sw_tClose 1050 460 h
a 0 sp 0 0 0 24 hln 100 PART=Sw_tClose
a 0 s 0:13 0 0 0 hln 100 PKGTYPE=
a 0 a 0:13 0 0 0 hln 100 PKGREF=U14
a 0 ap 9 0 0 20 hln 100 REFDES=U14
a 0 u 13 13 -2 -4 hln 100 tClose=10
part 281 Sw_tClose 880 600 h
a 0 sp 0 0 0 24 hln 100 PART=Sw_tClose
a 0 s 0:13 0 0 0 hln 100 PKGTYPE=
a 0 a 0:13 0 0 0 hln 100 PKGREF=U13
a 0 ap 9 0 0 20 hln 100 REFDES=U13
a 0 u 13 13 -2 -4 hln 100 tClose=10
part 224 R 970 550 v
a 0 sp 0 0 0 10 hlb 100 PART=R
a 0 s 0:13 0 0 0 hln 100 PKGTYPE=RC05
a 0 s 0:13 0 0 0 hln 100 GATE=
a 0 x 0:13 0 0 0 hln 100 PKGREF=R16
a 0 xp 9 0 15 0 hln 100 REFDES=R16
part 232 POT 300 650 u
a 0 sp 11 0 20 25 hln 100 PART=POT
a 0 s 0:13 0 0 0 hln 100 PKGTYPE=
a 0 u 0 0 30 28 hln 100 VALUE=19k
a 0 x 0:13 0 0 0 hln 100 PKGREF=R18
a 0 xp 9 0 15 0 hln 100 REFDES=R18
a 0 u 0 0 0 20 hln 100 SET=0.1
part 1 titleblk 1520 970 h
a 1 s 13 0 350 10 hcn 100 PAGESIZE=B
a 1 s 13 0 180 60 hcn 100 PAGETITLE=
a 1 s 13 0 300 95 hrn 100 PAGENO=1
a 1 s 13 0 340 95 hrn 100 PAGECOUNT=1
part 323 nodeMarker 800 520 h
a 0 s 0 0 0 0 hln 100 PROBEVAR=U7:OUT
a 0 a 0 0 4 22 hlb 100 LABEL=3
@conn
w 3
a 0 up 0:33 0 0 0 hln 100 V=
s 100 80 100 100 2
a 0 up 33 0 102 90 hlt 100 V=
w 5
a 0 up 0:33 0 0 0 hln 100 V=
s 210 180 210 120 6
a 0 up 33 0 212 150 hlt 100 V=
s 210 120 210 100 10
s 260 120 210 120 8
a 0 up 33 0 235 119 hct 100 V=
w 12
a 0 up 0:33 0 0 0 hln 100 V=
s 100 160 100 180 11
s 160 160 100 160 13
s 100 140 100 160 15
s 160 180 160 160 17
s 260 160 160 160 19
a 0 up 33 0 210 159 hct 100 V=
w 22
a 0 up 0:33 0 0 0 hln 100 V=
s 40 130 40 110 23
a 0 up 33 0 42 100 hlt 100 V=
s 40 110 40 90 238
a 0 up 33 0 42 100 hlt 100 V=
w 26
a 0 up 0:33 0 0 0 hln 100 V=
s 100 220 100 230 25
s 160 210 160 230 27
a 0 up 33 0 162 265 hlt 100 V=
s 160 230 210 230 29
s 210 230 210 220 31
s 100 230 160 230 33
a 0 up 33 0 130 229 hct 100 V=
w 36
a 0 up 0:33 0 0 0 hln 100 V=
s 530 70 470 70 35
s 520 140 470 140 39
s 470 140 450 140 43
s 470 160 470 140 41
s 470 70 470 140 44
a 0 up 33 0 472 105 hlt 100 V=
w 47
a 0 up 0:33 0 0 0 hln 100 V=
s 790 90 750 90 46
s 770 160 750 160 50
s 750 160 740 160 54
s 750 90 750 160 52
a 0 up 33 0 752 125 hlt 100 V=
w 86
a 0 up 0:33 0 0 0 hln 100 V=
s 1210 130 1150 130 85
s 1180 200 1150 200 89
s 1150 200 1140 200 93
s 1150 130 1150 200 91
a 0 up 33 0 1152 165 hlt 100 V=
w 95
a 0 up 0:33 0 0 0 hln 100 V=
s 210 390 170 390 94
s 190 460 170 460 98
s 170 460 160 460 102
s 170 390 170 460 100
a 0 up 33 0 172 425 hlt 100 V=
w 120
a 0 up 0:33 0 0 0 hln 100 V=
s 480 410 420 410 119
s 470 480 420 480 121
s 420 500 420 480 123
s 420 410 420 480 125
a 0 up 33 0 422 445 hlt 100 V=
s 420 480 380 480 127
w 152
a 0 up 0:33 0 0 0 hln 100 V=
s 480 670 480 740 151
a 0 up 33 0 482 705 hlt 100 V=
s 480 740 470 740 153
s 500 740 480 740 155
s 520 670 480 670 157
w 160
a 0 up 0:33 0 0 0 hln 100 V=
s 170 720 140 720 159
a 0 up 33 0 155 719 hct 100 V=
w 162
a 0 up 0:33 0 0 0 hln 100 V=
s 630 760 580 760 161
s 560 670 630 670 163
s 630 670 630 760 165
a 0 up 33 0 632 725 hlt 100 V=
s 630 760 670 760 167
s 670 760 670 540 169
a 0 up 33 0 672 650 hlt 100 V=
s 670 540 700 540 171
w 174
a 0 up 0:33 0 0 0 hln 100 V=
s 300 650 370 650 173
s 370 740 320 740 175
s 370 650 370 740 177
a 0 up 33 0 372 705 hlt 100 V=
s 430 740 370 740 179
w 182
a 0 up 0:33 0 0 0 hln 100 V=
s 280 630 260 630 181
s 220 650 220 720 183
a 0 up 33 0 222 685 hlt 100 V=
s 220 720 210 720 185
s 240 720 220 720 187
s 260 650 220 650 189
s 260 630 260 650 191
w 288
a 0 up 0:33 0 0 0 hln 100 V=
s 970 550 970 600 287
s 970 600 1050 600 289
a 0 up 33 0 1010 599 hct 100 V=
s 920 600 970 600 291
w 296
a 0 up 0:33 0 0 0 hln 100 V=
s 1090 600 1120 600 295
s 1120 600 1120 520 297
a 0 up 33 0 1122 560 hlt 100 V=
s 1120 460 1090 460 299
s 1120 520 1120 460 319
s 1160 520 1120 520 317
w 284
a 0 up 0:33 0 0 0 hln 100 V=
s 920 460 970 460 283
s 970 460 970 510 285
s 1050 460 970 460 293
a 0 up 33 0 1010 459 hct 100 V=
w 56
a 0 up 0:33 0 0 0 hln 100 V=
s 210 60 210 30 55
s 210 30 100 30 57
s 390 30 210 30 59
a 0 up 33 0 300 29 hct 100 V=
s 100 30 100 50 61
s 340 140 390 140 63
s 390 140 390 30 65
s 410 140 390 140 67
w 70
a 0 up 0:33 0 0 0 hln 100 V=
s 570 70 650 70 69
s 650 70 650 160 71
a 0 up 33 0 652 115 hlt 100 V=
s 650 160 600 160 73
s 700 160 650 160 75
w 78
a 0 up 0:33 0 0 0 hln 100 V=
s 900 90 900 180 77
a 0 up 33 0 902 145 hlt 100 V=
s 830 90 900 90 79
s 900 180 850 180 81
s 990 180 900 180 83
a 0 up 33 0 945 179 hct 100 V=
w 104
a 0 up 0:33 0 0 0 hln 100 V=
s 1070 200 1100 200 324
a 0 up 33 0 1080 199 hct 100 V=
w 106
a 0 up 0:33 0 0 0 hln 100 V=
s 1240 130 1340 130 105
a 0 up 33 0 1290 129 hct 100 V=
s 1340 130 1340 220 107
s 1340 220 1340 320 111
s 1340 320 50 320 113
a 0 up 33 0 695 319 hct 100 V=
s 50 320 50 460 115
s 50 460 120 460 117
s 1340 220 1260 220 325
w 130
a 0 up 0:33 0 0 0 hln 100 V=
s 320 390 320 480 129
a 0 up 33 0 322 445 hlt 100 V=
s 250 390 320 390 131
s 320 480 270 480 133
s 340 480 320 480 326
w 138
a 0 up 0:33 0 0 0 hln 100 V=
s 520 410 600 410 137
s 600 410 600 500 139
a 0 up 33 0 602 455 hlt 100 V=
s 600 500 550 500 141
s 700 500 600 500 327
a 0 up 33 0 650 499 hct 100 V=
w 148
a 0 up 0:33 0 0 0 hln 100 V=
s 880 460 840 460 304
s 840 460 840 520 306
s 840 600 880 600 308
s 840 520 840 600 316
s 780 520 800 520 321
a 0 up 33 0 795 519 hct 100 V=
s 800 520 840 520 328
@junction
j 210 120
+ w 5
+ w 5
j 100 160
+ w 12
+ w 12
j 160 160
+ w 12
+ w 12
j 160 230
+ w 26
+ w 26
j 470 140
+ w 36
+ w 36
j 750 160
+ w 47
+ w 47
j 650 160
+ w 70
+ w 70
j 900 180
+ w 78
+ w 78
j 1150 200
+ w 86
+ w 86
j 170 460
+ w 95
+ w 95
j 1340 220
+ w 106
+ w 106
j 420 480
+ w 120
+ w 120
j 320 480
+ w 130
+ w 130
j 600 500
+ w 138
+ w 138
j 480 740
+ w 152
+ w 152
j 630 760
+ w 162
+ w 162
j 370 740
+ w 174
+ w 174
j 220 720
+ w 182
+ w 182
j 100 180
+ p 193 2
+ w 12
j 100 220
+ p 193 1
+ w 26
j 100 100
+ p 194 2
+ w 3
j 100 140
+ p 194 1
+ w 12
j 210 100
+ p 195 1
+ w 5
j 100 80
+ p 196 1
+ w 3
j 260 120
+ p 197 -
+ w 5
j 260 160
+ p 197 +
+ w 12
j 40 90
+ p 198 -
+ w 22
j 160 180
+ p 199 2
+ w 12
j 160 210
+ p 199 1
+ w 26
j 210 180
+ p 200 2
+ w 5
j 210 220
+ p 200 1
+ w 26
j 520 140
+ p 201 -
+ w 36
j 600 160
+ p 201 OUT
+ w 70
j 450 140
+ p 202 2
+ w 36
j 470 160
+ p 203 2
+ w 36
j 530 70
+ p 204 2
+ w 36
j 570 70
+ p 204 1
+ w 70
j 40 130
+ p 205 +
+ w 22
j 740 160
+ p 206 2
+ w 47
j 700 160
+ p 206 1
+ w 70
j 770 160
+ p 207 -
+ w 47
j 850 180
+ p 207 OUT
+ w 78
j 790 90
+ p 208 1
+ w 47
j 830 90
+ p 208 2
+ w 78
j 470 200
+ p 209 +
+ p 203 1
j 1030 170
+ p 212 V+
+ p 210 +
j 1030 230
+ p 212 V-
+ p 211 -
j 990 180
+ p 212 +
+ w 78
j 1070 200
+ p 212 OUT
+ w 104
j 1180 200
+ p 213 -
+ w 86
j 1260 220
+ p 213 OUT
+ w 106
j 1140 200
+ p 214 2
+ w 86
j 1100 200
+ p 214 1
+ w 104
j 1210 130
+ p 215 1
+ w 86
j 1240 130
+ p 215 2
+ w 106
j 190 460
+ p 216 -
+ w 95
j 270 480
+ p 216 OUT
+ w 130
j 210 390
+ p 217 1
+ w 95
j 250 390
+ p 217 2
+ w 130
j 160 460
+ p 218 2
+ w 95
j 120 460
+ p 218 1
+ w 106
j 470 480
+ p 219 -
+ w 120
j 550 500
+ p 219 OUT
+ w 138
j 480 410
+ p 220 2
+ w 120
j 520 410
+ p 220 1
+ w 138
j 380 480
+ p 221 2
+ w 120
j 340 480
+ p 221 1
+ w 130
j 420 500
+ p 222 2
+ w 120
j 420 540
+ p 223 -
+ p 222 1
j 140 720
+ p 225 +
+ w 160
j 500 740
+ p 226 -
+ w 152
j 580 760
+ p 226 OUT
+ w 162
j 700 500
+ p 227 +
+ w 138
j 700 540
+ p 227 -
+ w 162
j 470 740
+ p 228 2
+ w 152
j 430 740
+ p 228 1
+ w 174
j 520 670
+ p 229 1
+ w 152
j 560 670
+ p 229 2
+ w 162
j 170 720
+ p 230 1
+ w 160
j 210 720
+ p 230 2
+ w 182
j 320 740
+ p 231 OUT
+ w 174
j 240 720
+ p 231 -
+ w 182
j 40 50
+ s 233
+ p 198 +
j 40 170
+ s 234
+ p 205 -
j 300 110
+ s 235
+ p 197 V-
j 300 170
+ s 236
+ p 197 V+
j 40 110
+ s 237
+ w 22
j 40 240
+ s 240
+ s 239
j 160 230
+ s 241
+ w 26
j 520 180
+ s 242
+ p 201 +
j 470 240
+ s 243
+ p 209 -
j 560 130
+ s 244
+ p 201 V-
j 560 190
+ s 245
+ p 201 V+
j 810 150
+ s 246
+ p 207 V-
j 810 210
+ s 247
+ p 207 V+
j 770 200
+ s 248
+ p 207 +
j 1030 130
+ s 249
+ p 210 -
j 1030 270
+ s 250
+ p 211 +
j 990 220
+ s 251
+ p 212 -
j 1220 190
+ s 252
+ p 213 V-
j 1220 250
+ s 253
+ p 213 V+
j 1180 240
+ s 254
+ p 213 +
j 230 450
+ s 255
+ p 216 V-
j 230 510
+ s 256
+ p 216 V+
j 190 500
+ s 257
+ p 216 +
j 470 520
+ s 258
+ p 219 +
j 510 470
+ s 259
+ p 219 V-
j 510 530
+ s 260
+ p 219 V+
j 420 580
+ s 261
+ p 223 +
j 740 490
+ s 262
+ p 227 V+
j 740 550
+ s 263
+ p 227 V-
j 280 710
+ s 265
+ p 231 V-
j 280 770
+ s 266
+ p 231 V+
j 240 760
+ s 267
+ p 231 +
j 140 760
+ s 268
+ p 225 -
j 540 730
+ s 269
+ p 226 V-
j 540 790
+ s 270
+ p 226 V+
j 500 780
+ s 271
+ p 226 +
j 210 30
+ w 56
+ w 56
j 390 140
+ w 56
+ w 56
j 210 60
+ p 195 2
+ w 56
j 100 50
+ p 196 2
+ w 56
j 340 140
+ p 197 OUT
+ w 56
j 410 140
+ p 202 1
+ w 56
j 300 650
+ p 232 1
+ w 174
j 260 650
+ p 232 2
+ w 182
j 280 630
+ p 232 t
+ w 182
j 970 510
+ p 224 2
+ w 284
j 1050 460
+ p 282 1
+ w 284
j 970 460
+ w 284
+ w 284
j 880 600
+ p 281 1
+ w 148
j 780 520
+ p 227 OUT
+ w 148
j 840 520
+ w 148
+ w 148
j 800 520
+ p 323 pin1
+ w 148
j 920 460
+ p 279 2
+ w 284
j 880 460
+ p 279 1
+ w 148
j 1050 600
+ p 280 1
+ w 288
j 1090 600
+ p 280 2
+ w 296
j 970 550
+ p 224 1
+ w 288
j 920 600
+ p 281 2
+ w 288
j 970 600
+ w 288
+ w 288
j 1090 460
+ p 282 2
+ w 296
j 1160 520
+ s 264
+ w 296
j 1120 520
+ w 296
+ w 296
@attributes
a 0 s 0:13 0 0 0 hln 100 PAGETITLE=
a 0 s 0:13 0 0 0 hln 100 PAGENO=1
a 0 s 0:13 0 0 0 hln 100 PAGESIZE=B
a 0 s 0:13 0 0 0 hln 100 PAGECOUNT=1
@graphics
